Circuit: * C:\Users\skike\OneDrive\Bureau\Draftfinal.asc

Direct Newton iteration for .op point succeeded.

Date: Wed Jan 27 01:07:21 2021
Total elapsed time: 0.127 seconds.

tnom = 27
temp = 27
method = modified trap
totiter = 7816
traniter = 7794
tranpoints = 3898
accept = 2438
rejected = 1460
matrix size = 14
fillins = 5
solver = Normal
Matrix Compiler1: 646 bytes object code size  0.2/0.1/[0.1]
Matrix Compiler2: 1.18 KB object code size  0.1/0.1/[0.1]


